<?xml version="1.0"?>

<!-- generated on Wed Feb 10 18:22:44 2010 by SUMO netconvert Version 0.11.1
<configuration>

    <input>
        <osm-files value="../kirchberg.osm.xml"/>
    </input>

    <output>
        <output-file value="kirchberg.net.xml"/>
    </output>

    <projection>
        <proj.utm value="true"/>
    </projection>

    <tls_building>
        <guess-tls value="true"/>
    </tls_building>

    <ramp_guessing>
        <guess-ramps value="true"/>
    </ramp_guessing>

    <edge_removal>
        <remove-edges.by-vclass value="rail_slow,rail_fast,bicycle,pedestrian"/>
    </edge_removal>

    <processing>
        <dismiss-loading-errors value="true"/>
        <remove-isolated value="true"/>
        <no-turnarounds value="true"/>
        <guess-roundabouts value="true"/>
    </processing>

    <report>
        <verbose value="true"/>
    </report>

</configuration>
-->

<net>

   <location netOffset="-292887.15,-5499283.99" convBoundary="0.00,0.00,7959.67,10575.23" origBoundary="6.132129,49.610782,6.241780,49.705792" projParameter="+proj=utm +zone=32 +ellps=WGS84 +datum=WGS84 +units=m +no_defs"/>

   <edge id=":10929043-AddedOffRampNode_0" function="internal">
      <lanes>
         <lane id=":10929043-AddedOffRampNode_0_0" depart="0" maxspeed="36.11" length="4.75" shape="3640.17,2022.44 3643.37,2025.96"/>
      </lanes>
   </edge>

   <edge id=":10929043-AddedOffRampNode_1" function="internal">
      <lanes>
         <lane id=":10929043-AddedOffRampNode_1_0" depart="0" maxspeed="36.11" length="3.32" shape="3640.17,2022.44 3640.08,2025.76"/>
      </lanes>
   </edge>

   <edge id=":10929043-AddedOffRampNode_2" function="internal">
      <lanes>
         <lane id=":10929043-AddedOffRampNode_2_0" depart="0" maxspeed="36.11" length="3.10" shape="3636.87,2022.46 3636.79,2025.56"/>
      </lanes>
   </edge>

   <edge id=":117324415_0" function="internal">
      <lanes>
         <lane id=":117324415_0_0" depart="0" maxspeed="27.78" length="9.75" shape="1563.29,1996.39 1559.76,2005.48"/>
      </lanes>
   </edge>

   <edge id=":117324415_1" function="internal">
      <lanes>
         <lane id=":117324415_1_0" depart="0" maxspeed="27.78" length="9.68" shape="1560.20,1995.23 1556.70,2004.25"/>
      </lanes>
   </edge>

   <edge id=":117324415_2" function="internal">
      <lanes>
         <lane id=":117324415_2_0" depart="0" maxspeed="20.83" length="13.16" shape="1560.20,1995.23 1558.64,1997.64 1556.22,1998.88 1552.95,1998.92 1548.81,1997.77"/>
      </lanes>
   </edge>

   <edge id=":117324415_3" function="internal">
      <lanes>
         <lane id=":117324415_3_0" depart="0" maxspeed="20.83" length="5.04" shape="1549.99,1994.69 1551.34,1995.00 1552.47,1994.80 1553.36,1994.11 1554.02,1992.90"/>
      </lanes>
   </edge>

   <edge id=":117324415_4" function="internal">
      <lanes>
         <lane id=":117324415_4_0" depart="0" maxspeed="20.83" length="13.21" shape="1549.99,1994.69 1553.84,1996.59 1556.24,1998.82 1557.19,2001.37 1556.70,2004.25"/>
      </lanes>
   </edge>

   <edge id=":117324415_5" function="internal">
      <lanes>
         <lane id=":117324415_5_0" depart="0" maxspeed="20.83" length="5.02" shape="1550.57,2001.79 1550.90,2000.45 1550.71,1999.34 1550.02,1998.44 1548.81,1997.77"/>
      </lanes>
   </edge>

   <edge id=":117324415_6" function="internal">
      <lanes>
         <lane id=":117324415_6_0" depart="0" maxspeed="27.78" length="9.54" shape="1550.57,2001.79 1554.02,1992.90"/>
      </lanes>
   </edge>

   <edge id=":117324415_7" function="internal">
      <lanes>
         <lane id=":117324415_7_0" depart="0" maxspeed="27.78" length="9.61" shape="1553.63,2003.02 1557.11,1994.07"/>
      </lanes>
   </edge>

   <edge id=":117324443_0" function="internal">
      <lanes>
         <lane id=":117324443_0_0" depart="0" maxspeed="27.78" length="7.82" shape="906.14,1979.62 901.16,1973.59"/>
      </lanes>
   </edge>

   <edge id=":117324443_1" function="internal">
      <lanes>
         <lane id=":117324443_1_0" depart="0" maxspeed="27.78" length="8.21" shape="908.11,1976.97 902.79,1970.72"/>
      </lanes>
   </edge>

   <edge id=":117324443_2" function="internal">
      <lanes>
         <lane id=":117324443_2_0" depart="0" maxspeed="27.78" length="6.08" shape="908.64,1966.62 912.03,1971.67"/>
      </lanes>
   </edge>

   <edge id=":117324443_3" function="internal">
      <lanes>
         <lane id=":117324443_3_0" depart="0" maxspeed="27.78" length="7.83" shape="908.64,1966.62 910.07,1974.32"/>
      </lanes>
   </edge>

   <edge id=":117324443_4" function="internal">
      <lanes>
         <lane id=":117324443_4_0" depart="0" maxspeed="27.78" length="7.61" shape="905.69,1968.02 906.56,1970.42 906.37,1971.66 905.11,1971.76 902.79,1970.72"/>
      </lanes>
   </edge>

   <edge id=":117324451_0" function="internal">
      <lanes>
         <lane id=":117324451_0_0" depart="0" maxspeed="27.78" length="16.23" shape="789.62,1902.05 785.86,1899.10 782.99,1897.50 779.93,1896.16 775.60,1894.03"/>
      </lanes>
   </edge>

   <edge id=":117324451_1" function="internal">
      <lanes>
         <lane id=":117324451_1_0" depart="0" maxspeed="27.78" length="16.65" shape="789.62,1902.05 786.06,1898.61 783.78,1896.03 781.31,1893.74 777.18,1891.13"/>
      </lanes>
   </edge>

   <edge id=":117324451_2" function="internal">
      <lanes>
         <lane id=":117324451_2_0" depart="0" maxspeed="27.78" length="14.14" shape="791.78,1899.56 787.35,1895.39 784.81,1892.21 784.14,1890.03 785.35,1888.83"/>
      </lanes>
   </edge>

   <edge id=":117324451_3" function="internal">
      <lanes>
         <lane id=":117324451_3_0" depart="0" maxspeed="27.78" length="4.13" shape="780.32,1885.33 781.30,1885.74 782.29,1885.94 783.30,1885.92 784.33,1885.69"/>
      </lanes>
   </edge>

   <edge id=":117324451_4" function="internal">
      <lanes>
         <lane id=":117324451_4_0" depart="0" maxspeed="27.78" length="6.82" shape="778.75,1888.23 780.35,1888.91 781.99,1889.24 783.65,1889.21 785.35,1888.83"/>
      </lanes>
   </edge>

   <edge id=":117324900_0" function="internal">
      <lanes>
         <lane id=":117324900_0_0" depart="0" maxspeed="25.00" length="5.77" shape="807.69,1874.86 807.29,1876.54 807.59,1877.66 808.61,1878.22 810.33,1878.23"/>
      </lanes>
   </edge>

   <edge id=":117324900_1" function="internal">
      <lanes>
         <lane id=":117324900_1_0" depart="0" maxspeed="27.78" length="11.86" shape="798.82,1880.96 802.17,1879.87 804.49,1879.20 806.85,1878.72 810.33,1878.23"/>
      </lanes>
   </edge>

   <edge id=":117324900_2" function="internal">
      <lanes>
         <lane id=":117324900_2_0" depart="0" maxspeed="27.78" length="11.25" shape="799.85,1884.10 803.02,1883.06 805.22,1882.42 807.46,1881.97 810.76,1881.50"/>
      </lanes>
   </edge>

   <edge id=":117324900_3" function="internal">
      <lanes>
         <lane id=":117324900_3_0" depart="0" maxspeed="27.78" length="12.15" shape="803.21,1886.81 803.95,1883.37 805.38,1880.79 807.51,1879.08 810.33,1878.23"/>
      </lanes>
   </edge>

   <edge id=":117324900_4" function="internal">
      <lanes>
         <lane id=":117324900_4_0" depart="0" maxspeed="27.78" length="7.68" shape="806.50,1887.14 806.95,1884.85 807.82,1883.15 809.09,1882.04 810.76,1881.50"/>
      </lanes>
   </edge>

   <edge id=":117324985_0" function="internal">
      <lanes>
         <lane id=":117324985_0_0" depart="0" maxspeed="27.78" length="22.34" shape="808.96,1926.39 805.05,1922.05 804.85,1917.38 805.64,1912.04 804.70,1905.68"/>
      </lanes>
   </edge>

   <edge id=":117324985_1" function="internal">
      <lanes>
         <lane id=":117324985_1_0" depart="0" maxspeed="27.78" length="20.57" shape="810.74,1923.61 807.34,1919.68 807.52,1915.47 808.57,1910.54 807.77,1904.48"/>
      </lanes>
   </edge>

   <edge id=":117324985_2" function="internal">
      <lanes>
         <lane id=":117324985_2_0" depart="0" maxspeed="27.78" length="16.68" shape="812.53,1920.83 808.44,1918.06 805.78,1915.95 803.24,1913.70 799.47,1910.48"/>
      </lanes>
   </edge>

   <edge id=":117324985_3" function="internal">
      <lanes>
         <lane id=":117324985_3_0" depart="0" maxspeed="27.78" length="16.30" shape="814.31,1918.06 810.32,1915.35 807.73,1913.29 805.25,1911.08 801.57,1907.93"/>
      </lanes>
   </edge>

   <edge id=":117325406_0" function="internal">
      <lanes>
         <lane id=":117325406_0_0" depart="0" maxspeed="25.00" length="3.52" shape="819.69,1866.22 820.11,1866.85 820.71,1867.38 821.51,1867.82 822.50,1868.15"/>
      </lanes>
   </edge>

   <edge id=":117325406_1" function="internal">
      <lanes>
         <lane id=":117325406_1_0" depart="0" maxspeed="27.78" length="5.59" shape="823.87,1876.47 821.65,1871.34"/>
      </lanes>
   </edge>

   <edge id=":117325406_2" function="internal">
      <lanes>
         <lane id=":117325406_2_0" depart="0" maxspeed="27.78" length="4.47" shape="824.29,1879.74 823.71,1875.31"/>
      </lanes>
   </edge>

   <edge id=":117325408_0" function="internal">
      <lanes>
         <lane id=":117325408_0_0" depart="0" maxspeed="20.83" length="5.92" shape="880.78,1893.79 879.00,1894.06 878.08,1894.78 878.02,1895.95 878.81,1897.56"/>
      </lanes>
   </edge>

   <edge id=":117325408_1" function="internal">
      <lanes>
         <lane id=":117325408_1_0" depart="0" maxspeed="20.83" length="10.02" shape="880.78,1893.79 877.37,1894.21 875.44,1895.28 875.01,1897.01 876.06,1899.38"/>
      </lanes>
   </edge>

   <edge id=":117325408_2" function="internal">
      <lanes>
         <lane id=":117325408_2_0" depart="0" maxspeed="20.83" length="5.99" shape="874.74,1891.07 880.70,1890.49"/>
      </lanes>
   </edge>

   <edge id=":117325408_3" function="internal">
      <lanes>
         <lane id=":117325408_3_0" depart="0" maxspeed="27.78" length="7.50" shape="872.78,1893.72 873.31,1901.21"/>
      </lanes>
   </edge>

   <edge id=":117325408_4" function="internal">
      <lanes>
         <lane id=":117325408_4_0" depart="0" maxspeed="27.78" length="6.66" shape="870.83,1896.38 870.56,1903.03"/>
      </lanes>
   </edge>

   <edge id=":117325410_0" function="internal">
      <lanes>
         <lane id=":117325410_0_0" depart="0" maxspeed="27.78" length="17.57" shape="879.85,1899.12 879.33,1900.00 878.00,1902.98 875.87,1908.07 872.93,1915.26"/>
      </lanes>
   </edge>

   <edge id=":117325410_1" function="internal">
      <lanes>
         <lane id=":117325410_1_0" depart="0" maxspeed="27.78" length="14.94" shape="877.10,1900.95 869.87,1914.02"/>
      </lanes>
   </edge>

   <edge id=":117325410_2" function="internal">
      <lanes>
         <lane id=":117325410_2_0" depart="0" maxspeed="27.78" length="12.38" shape="874.35,1902.77 876.31,1905.87 877.49,1908.09 878.53,1910.39 880.05,1913.74"/>
      </lanes>
   </edge>

   <edge id=":117325410_3" function="internal">
      <lanes>
         <lane id=":117325410_3_0" depart="0" maxspeed="27.78" length="11.90" shape="871.60,1904.60 873.48,1907.58 874.61,1909.71 875.60,1911.93 877.06,1915.15"/>
      </lanes>
   </edge>

   <edge id=":117325413_0" function="internal">
      <lanes>
         <lane id=":117325413_0_0" depart="0" maxspeed="27.78" length="15.20" shape="844.63,1941.34 840.58,1940.02 837.29,1940.64 834.00,1941.25 829.98,1939.89"/>
      </lanes>
   </edge>

   <edge id=":117325413_1" function="internal">
      <lanes>
         <lane id=":117325413_1_0" depart="0" maxspeed="27.78" length="15.17" shape="846.39,1938.54 842.35,1937.23 839.06,1937.85 835.78,1938.47 831.76,1937.12"/>
      </lanes>
   </edge>

   <edge id=":117325413_2" function="internal">
      <lanes>
         <lane id=":117325413_2_0" depart="0" maxspeed="27.78" length="14.26" shape="847.23,1934.60 843.04,1935.48 840.00,1936.21 837.16,1936.08 833.54,1934.34"/>
      </lanes>
   </edge>

   <edge id=":117325413_3" function="internal">
      <lanes>
         <lane id=":117325413_3_0" depart="0" maxspeed="27.78" length="11.95" shape="846.77,1931.33 843.27,1932.14 840.73,1932.91 838.35,1932.94 835.33,1931.56"/>
      </lanes>
   </edge>

   <edge id=":117326634_0" function="internal">
      <lanes>
         <lane id=":117326634_0_0" depart="0" maxspeed="20.83" length="6.73" shape="611.41,1909.07 610.16,1908.44 608.73,1908.40 607.10,1908.97 605.28,1910.15"/>
      </lanes>
   </edge>

   <edge id=":117326634_1" function="internal">
      <lanes>
         <lane id=":117326634_1_0" depart="0" maxspeed="20.83" length="13.83" shape="611.41,1909.07 608.77,1906.92 606.66,1904.78 605.10,1901.99 604.07,1897.90"/>
      </lanes>
   </edge>

   <edge id=":117326634_2" function="internal">
      <lanes>
         <lane id=":117326634_2_0" depart="0" maxspeed="20.83" length="10.49" shape="610.60,1896.91 610.82,1900.06 610.88,1902.39 611.51,1904.38 613.50,1906.51"/>
      </lanes>
   </edge>

   <edge id=":117326634_3" function="internal">
      <lanes>
         <lane id=":117326634_3_0" depart="0" maxspeed="27.78" length="11.48" shape="607.33,1897.40 607.44,1900.38 606.79,1903.07 605.40,1905.45 603.26,1907.53"/>
      </lanes>
   </edge>

   <edge id=":117326634_4" function="internal">
      <lanes>
         <lane id=":117326634_4_0" depart="0" maxspeed="27.78" length="4.43" shape="599.24,1902.30 600.06,1901.50 600.60,1900.58 600.85,1899.54 600.81,1898.39"/>
      </lanes>
   </edge>

   <edge id=":117326634_5" function="internal">
      <lanes>
         <lane id=":117326634_5_0" depart="0" maxspeed="27.78" length="7.96" shape="601.25,1904.92 602.73,1903.47 603.70,1901.82 604.14,1899.96 604.07,1897.90"/>
      </lanes>
   </edge>

   <edge id=":117326634_6" function="internal">
      <lanes>
         <lane id=":117326634_6_0" depart="0" maxspeed="20.83" length="13.42" shape="601.25,1904.92 604.00,1903.49 606.96,1903.28 610.12,1904.29 613.50,1906.51"/>
      </lanes>
   </edge>

   <edge id=":117326642_0" function="internal">
      <lanes>
         <lane id=":117326642_0_0" depart="0" maxspeed="27.78" length="2.85" shape="309.61,1658.06 308.73,1658.19 308.24,1658.00 308.14,1657.47 308.44,1656.62"/>
      </lanes>
   </edge>

   <edge id=":117326642_1" function="internal">
      <lanes>
         <lane id=":117326642_1_0" depart="0" maxspeed="27.78" length="3.50" shape="308.74,1654.88 307.19,1655.26 306.12,1655.44 305.55,1655.42 305.47,1655.18"/>
      </lanes>
   </edge>

   <edge id=":117326642_2" function="internal">
      <lanes>
         <lane id=":117326642_2_0" depart="0" maxspeed="20.83" length="15.48" shape="308.74,1654.88 303.93,1655.78 300.18,1655.75 296.89,1655.20 293.45,1654.56"/>
      </lanes>
   </edge>

   <edge id=":117326642_3" function="internal">
      <lanes>
         <lane id=":117326642_3_0" depart="0" maxspeed="20.83" length="13.51" shape="293.94,1651.29 297.16,1651.42 299.91,1650.84 302.94,1649.79 307.01,1648.51"/>
      </lanes>
   </edge>

   <edge id=":117326642_4" function="internal">
      <lanes>
         <lane id=":117326642_4_0" depart="0" maxspeed="20.83" length="12.66" shape="293.94,1651.29 299.35,1652.24 303.08,1653.20 305.12,1654.18 305.47,1655.18"/>
      </lanes>
   </edge>

   <edge id=":117326642_5" function="internal">
      <lanes>
         <lane id=":117326642_5_0" depart="0" maxspeed="20.83" length="6.48" shape="299.53,1652.30 293.45,1654.56"/>
      </lanes>
   </edge>

   <edge id=":117326642_6" function="internal">
      <lanes>
         <lane id=":117326642_6_0" depart="0" maxspeed="27.78" length="8.55" shape="299.53,1652.30 300.37,1651.30 301.89,1650.34 304.11,1649.41 307.01,1648.51"/>
      </lanes>
   </edge>

   <edge id=":117326642_7" function="internal">
      <lanes>
         <lane id=":117326642_7_0" depart="0" maxspeed="27.78" length="5.79" shape="302.50,1653.74 302.96,1653.36 304.01,1652.89 305.65,1652.34 307.88,1651.69"/>
      </lanes>
   </edge>

   <edge id=":129950848_0" function="internal">
      <lanes>
         <lane id=":129950848_0_0" depart="0" maxspeed="13.89" length="9.47" shape="2684.07,2403.20 2677.78,2410.28"/>
      </lanes>
   </edge>

   <edge id=":129950848_1" function="internal">
      <lanes>
         <lane id=":129950848_1_0" depart="0" maxspeed="18.06" length="10.32" shape="2684.07,2403.20 2681.95,2404.97 2679.72,2405.65 2677.40,2405.23 2674.96,2403.73"/>
      </lanes>
   </edge>

   <edge id=":129950848_2" function="internal">
      <lanes>
         <lane id=":129950848_2_0" depart="0" maxspeed="18.06" length="5.14" shape="2677.07,2401.18 2678.30,2401.95 2679.46,2402.18 2680.57,2401.86 2681.61,2401.00"/>
      </lanes>
   </edge>

   <edge id=":129950848_3" function="internal">
      <lanes>
         <lane id=":129950848_3_0" depart="0" maxspeed="18.06" length="10.49" shape="2677.07,2401.18 2679.01,2403.32 2679.77,2405.55 2679.36,2407.87 2677.78,2410.28"/>
      </lanes>
   </edge>

   <edge id=":129950848_4" function="internal">
      <lanes>
         <lane id=":129950848_4_0" depart="0" maxspeed="18.06" length="5.04" shape="2675.31,2408.10 2676.07,2406.94 2676.26,2405.82 2675.90,2404.75 2674.96,2403.73"/>
      </lanes>
   </edge>

   <edge id=":129950848_5" function="internal">
      <lanes>
         <lane id=":129950848_5_0" depart="0" maxspeed="13.89" length="9.49" shape="2675.31,2408.10 2681.61,2401.00"/>
      </lanes>
   </edge>

   <edge id=":129950916_0" function="internal">
      <lanes>
         <lane id=":129950916_0_0" depart="0" maxspeed="22.22" length="5.03" shape="2617.13,2355.90 2615.95,2355.17 2614.82,2355.00 2613.75,2355.37 2612.74,2356.29"/>
      </lanes>
   </edge>

   <edge id=":129950916_1" function="internal">
      <lanes>
         <lane id=":129950916_1_0" depart="0" maxspeed="22.22" length="9.58" shape="2617.13,2355.90 2609.80,2349.74"/>
      </lanes>
   </edge>

   <edge id=":129950916_2" function="internal">
      <lanes>
         <lane id=":129950916_2_0" depart="0" maxspeed="22.22" length="10.38" shape="2617.13,2355.90 2615.21,2353.79 2614.44,2351.58 2614.81,2349.27 2616.33,2346.85"/>
      </lanes>
   </edge>

   <edge id=":129950916_3" function="internal">
      <lanes>
         <lane id=":129950916_3_0" depart="0" maxspeed="22.22" length="5.01" shape="2618.85,2348.99 2618.12,2350.15 2617.94,2351.27 2618.31,2352.34 2619.23,2353.36"/>
      </lanes>
   </edge>

   <edge id=":129950916_4" function="internal">
      <lanes>
         <lane id=":129950916_4_0" depart="0" maxspeed="22.22" length="9.52" shape="2618.85,2348.99 2612.74,2356.29"/>
      </lanes>
   </edge>

   <edge id=":129950916_5" function="internal">
      <lanes>
         <lane id=":129950916_5_0" depart="0" maxspeed="22.22" length="10.36" shape="2618.85,2348.99 2616.72,2350.88 2614.50,2351.63 2612.19,2351.25 2609.80,2349.74"/>
      </lanes>
   </edge>

   <edge id=":129950916_6" function="internal">
      <lanes>
         <lane id=":129950916_6_0" depart="0" maxspeed="22.22" length="5.03" shape="2611.94,2347.23 2613.10,2347.96 2614.22,2348.14 2615.30,2347.77 2616.33,2346.85"/>
      </lanes>
   </edge>

   <edge id=":129950916_7" function="internal">
      <lanes>
         <lane id=":129950916_7_0" depart="0" maxspeed="22.22" length="9.53" shape="2611.94,2347.23 2619.23,2353.36"/>
      </lanes>
   </edge>

   <edge id=":129950916_8" function="internal">
      <lanes>
         <lane id=":129950916_8_0" depart="0" maxspeed="22.22" length="10.34" shape="2611.94,2347.23 2613.81,2349.35 2614.57,2351.57 2614.21,2353.88 2612.74,2356.29"/>
      </lanes>
   </edge>

   <edge id=":129950916_9" function="internal">
      <lanes>
         <lane id=":129950916_9_0" depart="0" maxspeed="22.22" length="5.08" shape="2610.19,2354.20 2610.92,2353.01 2611.09,2351.87 2610.72,2350.78 2609.80,2349.74"/>
      </lanes>
   </edge>

   <edge id=":129950916_10" function="internal">
      <lanes>
         <lane id=":129950916_10_0" depart="0" maxspeed="22.22" length="9.57" shape="2610.19,2354.20 2616.33,2346.85"/>
      </lanes>
   </edge>

   <edge id=":129950916_11" function="internal">
      <lanes>
         <lane id=":129950916_11_0" depart="0" maxspeed="22.22" length="10.36" shape="2610.19,2354.20 2612.29,2352.29 2614.49,2351.51 2616.81,2351.87 2619.23,2353.36"/>
      </lanes>
   </edge>

   <edge id=":129950966_0" function="internal">
      <lanes>
         <lane id=":129950966_0_0" depart="0" maxspeed="13.89" length="8.31" shape="2220.48,1930.43 2214.98,1924.20"/>
      </lanes>
   </edge>

   <edge id=":129950966_1" function="internal">
      <lanes>
         <lane id=":129950966_1_0" depart="0" maxspeed="13.89" length="6.17" shape="2220.48,1930.43 2219.41,1928.19 2219.51,1925.15"/>
      </lanes>
   </edge>

   <edge id=":129950966_6" function="internal">
      <lanes>
         <lane id=":129950966_6_0" depart="0" maxspeed="13.89" length="3.58" shape="2219.51,1925.15 2219.96,1923.76 2221.57,1921.58"/>
      </lanes>
   </edge>

   <edge id=":129950966_2" function="internal">
      <lanes>
         <lane id=":129950966_2_0" depart="0" maxspeed="13.89" length="5.24" shape="2223.97,1923.85 2223.06,1925.06 2222.63,1926.25 2222.68,1927.43 2223.22,1928.59"/>
      </lanes>
   </edge>

   <edge id=":129950966_3" function="internal">
      <lanes>
         <lane id=":129950966_3_0" depart="0" maxspeed="13.89" length="3.80" shape="2223.97,1923.85 2220.53,1925.94"/>
      </lanes>
   </edge>

   <edge id=":129950966_7" function="internal">
      <lanes>
         <lane id=":129950966_7_0" depart="0" maxspeed="13.89" length="6.40" shape="2220.53,1925.94 2219.56,1926.22 2217.29,1925.76 2214.98,1924.20"/>
      </lanes>
   </edge>

   <edge id=":129950966_4" function="internal">
      <lanes>
         <lane id=":129950966_4_0" depart="0" maxspeed="13.89" length="4.97" shape="2217.19,1921.75 2218.32,1922.51 2219.42,1922.73 2220.51,1922.42 2221.57,1921.58"/>
      </lanes>
   </edge>

   <edge id=":129950966_5" function="internal">
      <lanes>
         <lane id=":129950966_5_0" depart="0" maxspeed="13.89" length="9.11" shape="2217.19,1921.75 2223.22,1928.59"/>
      </lanes>
   </edge>

   <edge id=":141683_0" function="internal">
      <lanes>
         <lane id=":141683_0_0" depart="0" maxspeed="24.31" length="3.43" shape="294.88,1973.92 291.79,1975.43"/>
      </lanes>
   </edge>

   <edge id=":141683_1" function="internal">
      <lanes>
         <lane id=":141683_1_0" depart="0" maxspeed="24.31" length="4.47" shape="293.76,1970.79 289.78,1972.81"/>
      </lanes>
   </edge>

   <edge id=":141683_2" function="internal">
      <lanes>
         <lane id=":141683_2_0" depart="0" maxspeed="27.78" length="7.42" shape="285.74,1967.59 290.62,1962.00"/>
      </lanes>
   </edge>

   <edge id=":141683_3" function="internal">
      <lanes>
         <lane id=":141683_3_0" depart="0" maxspeed="27.78" length="6.46" shape="287.76,1970.20 291.73,1965.11"/>
      </lanes>
   </edge>

   <edge id=":141697_0" function="internal">
      <lanes>
         <lane id=":141697_0_0" depart="0" maxspeed="20.83" length="12.00" shape="951.42,1506.64 952.32,1508.96 950.22,1511.56 948.06,1514.26 948.73,1516.88"/>
      </lanes>
   </edge>

   <edge id=":141697_1" function="internal">
      <lanes>
         <lane id=":141697_1_0" depart="0" maxspeed="20.83" length="11.88" shape="949.66,1509.43 950.49,1511.70 948.29,1514.23 946.03,1516.86 946.64,1519.43"/>
      </lanes>
   </edge>

   <edge id=":141697_2" function="internal">
      <lanes>
         <lane id=":141697_2_0" depart="0" maxspeed="27.78" length="14.46" shape="947.90,1512.22 949.72,1516.29 949.45,1519.05 947.08,1520.48 942.62,1520.59"/>
      </lanes>
   </edge>

   <edge id=":141697_3" function="internal">
      <lanes>
         <lane id=":141697_3_0" depart="0" maxspeed="27.78" length="4.82" shape="946.14,1515.01 946.75,1516.37 946.65,1517.29 945.87,1517.76 944.38,1517.80"/>
      </lanes>
   </edge>

   <edge id=":141700_0" function="internal">
      <lanes>
         <lane id=":141700_0_0" depart="0" maxspeed="27.78" length="7.75" shape="687.28,1352.26 681.16,1347.50"/>
      </lanes>
   </edge>

   <edge id=":141700_1" function="internal">
      <lanes>
         <lane id=":141700_1_0" depart="0" maxspeed="27.78" length="7.30" shape="689.12,1349.52 683.35,1345.04"/>
      </lanes>
   </edge>

   <edge id=":141700_2" function="internal">
      <lanes>
         <lane id=":141700_2_0" depart="0" maxspeed="25.00" length="11.13" shape="689.12,1349.52 688.28,1348.22 688.50,1346.14 689.77,1343.26 692.09,1339.59"/>
      </lanes>
   </edge>

   <edge id=":141700_3" function="internal">
      <lanes>
         <lane id=":141700_3_0" depart="0" maxspeed="25.00" length="5.14" shape="687.74,1340.10 688.93,1340.89 690.06,1341.07 691.11,1340.64 692.09,1339.59"/>
      </lanes>
   </edge>

   <edge id=":141700_4" function="internal">
      <lanes>
         <lane id=":141700_4_0" depart="0" maxspeed="27.78" length="6.41" shape="687.74,1340.10 692.78,1344.06"/>
      </lanes>
   </edge>

   <edge id=":141700_5" function="internal">
      <lanes>
         <lane id=":141700_5_0" depart="0" maxspeed="27.78" length="6.86" shape="685.54,1342.57 690.94,1346.80"/>
      </lanes>
   </edge>

   <edge id=":141719_0" function="internal">
      <lanes>
         <lane id=":141719_0_0" depart="0" maxspeed="13.89" length="4.95" shape="1355.36,1489.45 1351.12,1486.88"/>
      </lanes>
   </edge>

   <edge id=":141719_1" function="internal">
      <lanes>
         <lane id=":141719_1_0" depart="0" maxspeed="9.72" length="12.64" shape="1355.36,1489.45 1352.27,1487.14 1351.64,1485.24 1353.47,1483.74 1357.75,1482.64"/>
      </lanes>
   </edge>

   <edge id=":141719_2" function="internal">
      <lanes>
         <lane id=":141719_2_0" depart="0" maxspeed="9.72" length="5.23" shape="1352.70,1483.98 1357.75,1482.64"/>
      </lanes>
   </edge>

   <edge id=":141719_3" function="internal">
      <lanes>
         <lane id=":141719_3_0" depart="0" maxspeed="13.89" length="5.05" shape="1352.70,1483.98 1357.02,1486.60"/>
      </lanes>
   </edge>

   <edge id=":141722_0" function="internal">
      <lanes>
         <lane id=":141722_0_0" depart="0" maxspeed="9.72" length="6.55" shape="1493.69,1589.77 1492.89,1587.85 1491.94,1587.13 1490.84,1587.60 1489.60,1589.28"/>
      </lanes>
   </edge>

   <edge id=":141722_1" function="internal">
      <lanes>
         <lane id=":141722_1_0" depart="0" maxspeed="9.72" length="12.08" shape="1493.69,1589.77 1492.82,1586.58 1492.07,1583.93 1491.08,1581.38 1489.51,1578.50"/>
      </lanes>
   </edge>

   <edge id=":141722_2" function="internal">
      <lanes>
         <lane id=":141722_2_0" depart="0" maxspeed="9.72" length="12.98" shape="1492.31,1576.76 1493.94,1579.76 1495.06,1582.60 1495.94,1585.53 1496.86,1588.85"/>
      </lanes>
   </edge>

   <edge id=":141722_3" function="internal">
      <lanes>
         <lane id=":141722_3_0" depart="0" maxspeed="13.89" length="13.32" shape="1492.31,1576.76 1493.02,1578.95 1492.81,1581.77 1491.67,1585.21 1489.60,1589.28"/>
      </lanes>
   </edge>

   <edge id=":141722_4" function="internal">
      <lanes>
         <lane id=":141722_4_0" depart="0" maxspeed="13.89" length="9.81" shape="1486.75,1587.63 1488.44,1584.42 1489.47,1581.83 1489.83,1579.86 1489.51,1578.50"/>
      </lanes>
   </edge>

   <edge id=":141722_5" function="internal">
      <lanes>
         <lane id=":141722_5_0" depart="0" maxspeed="9.72" length="16.21" shape="1486.75,1587.63 1489.82,1583.49 1492.52,1582.31 1494.87,1584.10 1496.86,1588.85"/>
      </lanes>
   </edge>

   <edge id=":141723_0" function="internal">
      <lanes>
         <lane id=":141723_0_0" depart="0" maxspeed="13.89" length="5.04" shape="1387.96,1765.57 1387.44,1766.86 1387.44,1768.01 1387.97,1769.01 1389.02,1769.88"/>
      </lanes>
   </edge>

   <edge id=":141723_1" function="internal">
      <lanes>
         <lane id=":141723_1_0" depart="0" maxspeed="13.89" length="5.01" shape="1380.86,1765.05 1382.13,1765.57 1383.26,1765.55 1384.25,1765.01 1385.10,1763.92"/>
      </lanes>
   </edge>

   <edge id=":141723_2" function="internal">
      <lanes>
         <lane id=":141723_2_0" depart="0" maxspeed="13.89" length="9.48" shape="1380.86,1765.05 1389.02,1769.88"/>
      </lanes>
   </edge>

   <edge id=":141723_3" function="internal">
      <lanes>
         <lane id=":141723_3_0" depart="0" maxspeed="13.89" length="9.44" shape="1379.20,1767.91 1387.33,1772.71"/>
      </lanes>
   </edge>

   <edge id=":141728_0" function="internal">
      <lanes>
         <lane id=":141728_0_0" depart="0" maxspeed="13.89" length="5.24" shape="2107.35,2322.29 2106.44,2323.46 2106.18,2324.57 2106.59,2325.64 2107.66,2326.66"/>
      </lanes>
   </edge>

   <edge id=":141728_1" function="internal">
      <lanes>
         <lane id=":141728_1_0" depart="0" maxspeed="18.06" length="9.71" shape="2107.35,2322.29 2100.58,2329.25"/>
      </lanes>
   </edge>

   <edge id=":141728_2" function="internal">
      <lanes>
         <lane id=":141728_2_0" depart="0" maxspeed="13.89" length="5.49" shape="2100.29,2320.10 2101.37,2320.98 2102.53,2321.24 2103.76,2320.88 2105.07,2319.91"/>
      </lanes>
   </edge>

   <edge id=":141728_3" function="internal">
      <lanes>
         <lane id=":141728_3_0" depart="0" maxspeed="13.89" length="9.87" shape="2100.29,2320.10 2107.66,2326.66"/>
      </lanes>
   </edge>

   <edge id=":141728_4" function="internal">
      <lanes>
         <lane id=":141728_4_0" depart="0" maxspeed="13.89" length="10.67" shape="2097.81,2322.28 2099.93,2324.63 2101.47,2326.15 2103.18,2327.50 2105.75,2329.35"/>
      </lanes>
   </edge>

   <edge id=":141728_5" function="internal">
      <lanes>
         <lane id=":141728_5_0" depart="0" maxspeed="18.06" length="8.01" shape="2097.81,2322.28 2099.66,2324.61 2100.73,2326.55 2101.04,2328.10 2100.58,2329.25"/>
      </lanes>
   </edge>

   <edge id=":141728_6" function="internal">
      <lanes>
         <lane id=":141728_6_0" depart="0" maxspeed="18.06" length="9.97" shape="2098.11,2327.05 2105.07,2319.91"/>
      </lanes>
   </edge>

   <edge id=":141728_7" function="internal">
      <lanes>